Created At: 2026-08-27T20:19:40+05:30
Completed At: 2026-08-27T20:19:41+05:30
File Path: `file:///D:/CFD/Project%20Setu/setu_structural_fea.apdl`
Total Lines: 34
Total Bytes: 336
Showing lines 1 to 34
The following code has been modified to include a line number before every line, in the format: <line_number>: <original_line>. Please note that any changes targeting the original code should remove the line number, colon, and leading space.
FINISH
/CLEAR,NOSTART
/TITLE,Project Setu Lightsail FEA
/PREP7

ET,1,SHELL181
KEYOPT,1,3,0

MP,EX,1,250E9
MP,PRXY,1,0.23
MP,DENS,1,3100

SECTYPE,1,SHELL
SECDATA,10.0E-6,1,0,3

CYL4,0,0,2.0

DL,ALL,,ALL,0

ESIZE,0.08
AMESH,ALL

/SOLU
ANTYPE,0
SFA,ALL,1,PRES,53.09
SOLVE
FINISH

/POST1
SET,LAST
/VIEW,1,1,1,1
/PLOPTS,LEG1,1
PLNSOL,S,EQV

The above content shows the entire, complete file contents of the requested file.